/*--------------------------------*- C++ -*----------------------------------*\
| =========                 |                                                 |
| \\      /  F ield         | OpenFOAM: The Open Source CFD Toolbox           |
|  \\    /   O peration     | Version:  v2012                                 |
|   \\  /    A nd           | Website:  www.openfoam.com                      |
|    \\/     M anipulation  |                                                 |
\*---------------------------------------------------------------------------*/
FoamFile
{
    version         2.0;
    format          ascii;
    class           dictionary;
    object          blockMeshDict;
}
// * * * * * * * * * * * * * * * * * * * * * * * * * * * * * * * * * * * * * //

   scale 1;
    vertices  
    (
	//Grid A	
	(0 0 0)
	(0.001 0 0)
	(0.001 0.001 0)
	(0 0.001 0)

	//Grid B
	(0 0 0.15)
	(0.001 0 0.15)
	(0.001 0.001 0.15)
	(0 0.001 0.15)
    );

    blocks  
    ( 
	hex (0 1 2 3 4 5 6 7) 
	(1 1 150)
	simpleGrading (1 1 1) //Block1	

    );

    edges  
    (
    );

    boundary  
    ( 
	Inlet
      {
	type            cyclic;
        neighbourPatch  Outlet;
        faces           ((0 4 7 3));
      } 

	Outlet
      {
	type            cyclic;
        neighbourPatch  Inlet;
        faces           ((2 6 5 1));
      } 

	Bottom
      {
	type wall;
	faces
	(
	(0 3 2 1)
	);
      } 

	Top
      {
	type patch;
	faces
	(
	(4 5 6 7)
	);
      } 

	Back
      {
	//type symmetryPlane;
	type            cyclic;
        neighbourPatch  Front;	
	faces
	(
	(1 5 4 0)
	);
      } 

	Front
      {
	//type symmetryPlane;
	type            cyclic;
        neighbourPatch  Back;	
	faces
	(
	(3 7 6 2)
	);
      }
    );

    mergePatchPairs  
    (
    );


// ************************************************************************* //
