/*--------------------------------*- C++ -*----------------------------------*\
| =========                 |                                                 |
| \\      /  F ield         | OpenFOAM: The Open Source CFD Toolbox           |
|  \\    /   O peration     | Version:  v2012                                 |
|   \\  /    A nd           | Website:  www.openfoam.com                      |
|    \\/     M anipulation  |                                                 |
\*---------------------------------------------------------------------------*/
FoamFile
{
    version     2.0;
    format      ascii;
    class       dictionary;
    object      fvSchemes;
}
// * * * * * * * * * * * * * * * * * * * * * * * * * * * * * * * * * * * * * //

ddtSchemes
{
    default             steadyState;
}

gradSchemes
{
    default             Gauss linear;
}

divSchemes
{
    default             none;

    div(phi,U)          bounded Gauss linear;

    turbulence          bounded Gauss limitedLinear 1;
    div(phi,epsilon)    $turbulence;
    div(phi,omega)      $turbulence;
    div(phi,k)          $turbulence;

    div((nuEff*dev2(T(grad(U)))))    Gauss linear;
}

laplacianSchemes
{
    default             Gauss linear uncorrected;
}

interpolationSchemes
{
    flux(U)							linear;
    flux(HbyA)							linear;
    interpolate(((1|((1|(1|A(U)))-H(1)))-(1|A(U))))		UInterpolationScheme 0.000033474;
}

snGradSchemes
{
    default             uncorrected;
}

wallDist
{
    method              meshWave;
}


// ************************************************************************* //
