/*--------------------------------*- C++ -*----------------------------------*\
| =========                 |                                                 |
| \\      /  F ield         | OpenFOAM: The Open Source CFD Toolbox           |
|  \\    /   O peration     | Version:  v2012                                 |
|   \\  /    A nd           | Website:  www.openfoam.com                      |
|    \\/     M anipulation  |                                                 |
\*---------------------------------------------------------------------------*/
FoamFile
{
    version     2.0;
    format      ascii;
    class       dictionary;
    object      fvSolution;
}
// * * * * * * * * * * * * * * * * * * * * * * * * * * * * * * * * * * * * * //

solvers
{
    p
    {
        solver           GAMG;
        smoother         GaussSeidel;
        tolerance        1e-8;
        relTol           0.01;
    }

    "(U|k|epsilon|omega)"
    {
        solver           smoothSolver;
        smoother         GaussSeidel;
        tolerance        1e-8;
        relTol           0.01;
    }
}

SIMPLE
{
    nNonOrthogonalCorrectors 0;
    consistent               true;
    pRefCell                 0;
    pRefValue                0;
    residualControl
        {
            U 1.0E-6;
            k 1.0E-6;
            epsilon 1.0E-6;
            p 1.0E-6;
        }
}

relaxationFactors
{
    equations
    {
        U              0.6;
        "(k|epsilon)"  0.6;
    }
    
    fields
    {
        p 0.3;
    }
        
}

cache
{
    grad(U);
}


// ************************************************************************* //
