/*--------------------------------*- C++ -*----------------------------------*\
| =========                 |                                                 |
| \\      /  F ield         | OpenFOAM: The Open Source CFD Toolbox           |
|  \\    /   O peration     | Version:  v2012                                 |
|   \\  /    A nd           | Website:  www.openfoam.com                      |
|    \\/     M anipulation  |                                                 |
\*---------------------------------------------------------------------------*/
FoamFile
{
    version     2.0;
    format      ascii;
    class       volScalarField;
    object      nut;
}
// * * * * * * * * * * * * * * * * * * * * * * * * * * * * * * * * * * * * * //

dimensions [ 0 2 -1 0 0 0 0 ];

internalField uniform 0.0;

boundaryField
{
    Inlet
    {
	type            cyclic;
    }

    Outlet
    {
	type            cyclic;
    }

    Bottom
    {
	type		atmNutWallFunction;
	z0		uniform 0.000033474;
	z0Min		0.0;	
	value		uniform 0.0;
       
    }

    Top
    {	
	type            calculated;
        value           uniform 0.0;
    }

    Back
    {
	type		cyclic;
    }

    Front
    {
	type		cyclic;
    }

}
